6
 
C      0.01079222      0.08027695     -0.43180471
C     -0.40307060     -0.08212021      0.95179399
H      1.09058540     -0.17053498     -0.52947412
H     -0.11219892      1.11924180     -0.80265530
H     -0.53731942     -0.58657682     -1.12948604
H     -0.04878867     -0.35928674      1.94262617
