12
 
C      0.70395897      1.03866306      0.58321093
N      1.54362297     -0.02724408      0.12225372
C      1.12749701     -1.19758639     -0.49057360
N     -0.23015532     -1.55483129     -0.20377539
C     -0.89928548     -0.85201982      0.74705629
C     -0.69751243      0.60916546      0.66998942
O      1.83597451     -1.92512175     -1.14714411
H     -1.28345111      1.07821021     -0.14430946
O      1.16952838      2.15011671      0.71942787
H      2.51316581      0.22850304     -0.06886626
H     -0.42740481     -2.54122891     -0.39425348
H     -1.47967547     -1.39671617      1.50874610
